!-Generator IDFEditor 1.44
!-Option SortedOrder

!-NOTE: All comments with '!-' are ignored by the IDFEditor and are generated automatically.
!-      Use '!' comments if they need to be retained when using the IDFEditor.


!-   ===========  ALL OBJECTS IN CLASS: VERSION ===========

Version,
    8.1;                     !- Version Identifier


!-   ===========  ALL OBJECTS IN CLASS: SIMULATIONCONTROL ===========

SimulationControl,
    Yes,                     !- Do Zone Sizing Calculation
    Yes,                     !- Do System Sizing Calculation
    Yes,                     !- Do Plant Sizing Calculation
    No,                      !- Run Simulation for Sizing Periods
    Yes;                     !- Run Simulation for Weather File Run Periods


!-   ===========  ALL OBJECTS IN CLASS: BUILDING ===========

Building,
    Medium Office,           !- Name
    85,                      !- North Axis {deg}
    ,                        !- Terrain
    0.075,                   !- Loads Convergence Tolerance Value
    0.4,                     !- Temperature Convergence Tolerance Value {deltaC}
    FullExterior,            !- Solar Distribution
    50,                      !- Maximum Number of Warmup Days
    ;                        !- Minimum Number of Warmup Days


!-   ===========  ALL OBJECTS IN CLASS: SHADOWCALCULATION ===========

ShadowCalculation,
    AverageOverDaysInFrequency,  !- Calculation Method
    7,                       !- Calculation Frequency
    15000;                   !- Maximum Figures in Shadow Overlap Calculations


!-   ===========  ALL OBJECTS IN CLASS: SURFACECONVECTIONALGORITHM:INSIDE ===========

SurfaceConvectionAlgorithm:Inside,
    TARP;                    !- Algorithm


!-   ===========  ALL OBJECTS IN CLASS: SURFACECONVECTIONALGORITHM:OUTSIDE ===========

SurfaceConvectionAlgorithm:Outside,
    DOE-2;                   !- Algorithm


!-   ===========  ALL OBJECTS IN CLASS: HEATBALANCEALGORITHM ===========

HeatBalanceAlgorithm,
    ConductionTransferFunction,  !- Algorithm
    200;                     !- Surface Temperature Upper Limit {C}


!-   ===========  ALL OBJECTS IN CLASS: ZONEAIRHEATBALANCEALGORITHM ===========

ZoneAirHeatBalanceAlgorithm,
    AnalyticalSolution;      !- Algorithm


!-   ===========  ALL OBJECTS IN CLASS: TIMESTEP ===========

Timestep,
    6;                       !- Number of Timesteps per Hour


!-   ===========  ALL OBJECTS IN CLASS: CONVERGENCELIMITS ===========

ConvergenceLimits,
    1,                       !- Minimum System Timestep {minutes}
    100,                     !- Maximum HVAC Iterations
    2,                       !- Minimum Plant Iterations
    10;                      !- Maximum Plant Iterations


!-   ===========  ALL OBJECTS IN CLASS: PROGRAMCONTROL ===========

ProgramControl,
    1;                       !- Number of Threads Allowed


!-   ===========  ALL OBJECTS IN CLASS: SITE:LOCATION ===========

Site:Location,
    Site 1,                  !- Name
    39.87,                   !- Latitude {deg}
    -75.23,                  !- Longitude {deg}
    -5,                      !- Time Zone {hr}
    2;                       !- Elevation {m}


!-   ===========  ALL OBJECTS IN CLASS: SIZINGPERIOD:DESIGNDAY ===========

SizingPeriod:DesignDay,
    Philadelphia Ne Philadelphia Ann Clg .4% Condns DB=>MWB,  !- Name
    7,                       !- Month
    21,                      !- Day of Month
    SummerDesignDay,         !- Day Type
    33.9,                    !- Maximum Dry-Bulb Temperature {C}
    10.3,                    !- Daily Dry-Bulb Temperature Range {deltaC}
    DefaultMultipliers,      !- Dry-Bulb Temperature Range Modifier Type
    ,                        !- Dry-Bulb Temperature Range Modifier Day Schedule Name
    Wetbulb,                 !- Humidity Condition Type
    24.3,                    !- Wetbulb or DewPoint at Maximum Dry-Bulb {C}
    ,                        !- Humidity Condition Day Schedule Name
    ,                        !- Humidity Ratio at Maximum Dry-Bulb {kgWater/kgDryAir}
    ,                        !- Enthalpy at Maximum Dry-Bulb {J/kg}
    ,                        !- Daily Wet-Bulb Temperature Range {deltaC}
    100965,                  !- Barometric Pressure {Pa}
    4.4,                     !- Wind Speed {m/s}
    300,                     !- Wind Direction {deg}
    No,                      !- Rain Indicator
    No,                      !- Snow Indicator
    No,                      !- Daylight Saving Time Indicator
    ASHRAETau,               !- Solar Model Indicator
    ,                        !- Beam Solar Day Schedule Name
    ,                        !- Diffuse Solar Day Schedule Name
    0.537,                   !- ASHRAE Clear Sky Optical Depth for Beam Irradiance (taub) {dimensionless}
    1.806;                   !- ASHRAE Clear Sky Optical Depth for Diffuse Irradiance (taud) {dimensionless}

SizingPeriod:DesignDay,
    Philadelphia Ne Philadelphia Ann Clg .4% Condns DP=>MDB,  !- Name
    7,                       !- Month
    21,                      !- Day of Month
    SummerDesignDay,         !- Day Type
    28.5,                    !- Maximum Dry-Bulb Temperature {C}
    10.3,                    !- Daily Dry-Bulb Temperature Range {deltaC}
    DefaultMultipliers,      !- Dry-Bulb Temperature Range Modifier Type
    ,                        !- Dry-Bulb Temperature Range Modifier Day Schedule Name
    Dewpoint,                !- Humidity Condition Type
    24.2,                    !- Wetbulb or DewPoint at Maximum Dry-Bulb {C}
    ,                        !- Humidity Condition Day Schedule Name
    ,                        !- Humidity Ratio at Maximum Dry-Bulb {kgWater/kgDryAir}
    ,                        !- Enthalpy at Maximum Dry-Bulb {J/kg}
    ,                        !- Daily Wet-Bulb Temperature Range {deltaC}
    100965,                  !- Barometric Pressure {Pa}
    4.4,                     !- Wind Speed {m/s}
    300,                     !- Wind Direction {deg}
    No,                      !- Rain Indicator
    No,                      !- Snow Indicator
    No,                      !- Daylight Saving Time Indicator
    ASHRAETau,               !- Solar Model Indicator
    ,                        !- Beam Solar Day Schedule Name
    ,                        !- Diffuse Solar Day Schedule Name
    0.537,                   !- ASHRAE Clear Sky Optical Depth for Beam Irradiance (taub) {dimensionless}
    1.806;                   !- ASHRAE Clear Sky Optical Depth for Diffuse Irradiance (taud) {dimensionless}

SizingPeriod:DesignDay,
    Philadelphia Ne Philadelphia Ann Clg .4% Condns Enth=>MDB,  !- Name
    7,                       !- Month
    21,                      !- Day of Month
    SummerDesignDay,         !- Day Type
    31.5,                    !- Maximum Dry-Bulb Temperature {C}
    10.3,                    !- Daily Dry-Bulb Temperature Range {deltaC}
    DefaultMultipliers,      !- Dry-Bulb Temperature Range Modifier Type
    ,                        !- Dry-Bulb Temperature Range Modifier Day Schedule Name
    Enthalpy,                !- Humidity Condition Type
    ,                        !- Wetbulb or DewPoint at Maximum Dry-Bulb {C}
    ,                        !- Humidity Condition Day Schedule Name
    ,                        !- Humidity Ratio at Maximum Dry-Bulb {kgWater/kgDryAir}
    80400,                   !- Enthalpy at Maximum Dry-Bulb {J/kg}
    ,                        !- Daily Wet-Bulb Temperature Range {deltaC}
    100965,                  !- Barometric Pressure {Pa}
    4.4,                     !- Wind Speed {m/s}
    300,                     !- Wind Direction {deg}
    No,                      !- Rain Indicator
    No,                      !- Snow Indicator
    No,                      !- Daylight Saving Time Indicator
    ASHRAETau,               !- Solar Model Indicator
    ,                        !- Beam Solar Day Schedule Name
    ,                        !- Diffuse Solar Day Schedule Name
    0.537,                   !- ASHRAE Clear Sky Optical Depth for Beam Irradiance (taub) {dimensionless}
    1.806;                   !- ASHRAE Clear Sky Optical Depth for Diffuse Irradiance (taud) {dimensionless}

SizingPeriod:DesignDay,
    Philadelphia Ne Philadelphia Ann Clg .4% Condns WB=>MDB,  !- Name
    7,                       !- Month
    21,                      !- Day of Month
    SummerDesignDay,         !- Day Type
    31.6,                    !- Maximum Dry-Bulb Temperature {C}
    10.3,                    !- Daily Dry-Bulb Temperature Range {deltaC}
    DefaultMultipliers,      !- Dry-Bulb Temperature Range Modifier Type
    ,                        !- Dry-Bulb Temperature Range Modifier Day Schedule Name
    Wetbulb,                 !- Humidity Condition Type
    26,                      !- Wetbulb or DewPoint at Maximum Dry-Bulb {C}
    ,                        !- Humidity Condition Day Schedule Name
    ,                        !- Humidity Ratio at Maximum Dry-Bulb {kgWater/kgDryAir}
    ,                        !- Enthalpy at Maximum Dry-Bulb {J/kg}
    ,                        !- Daily Wet-Bulb Temperature Range {deltaC}
    100965,                  !- Barometric Pressure {Pa}
    4.4,                     !- Wind Speed {m/s}
    300,                     !- Wind Direction {deg}
    No,                      !- Rain Indicator
    No,                      !- Snow Indicator
    No,                      !- Daylight Saving Time Indicator
    ASHRAETau,               !- Solar Model Indicator
    ,                        !- Beam Solar Day Schedule Name
    ,                        !- Diffuse Solar Day Schedule Name
    0.537,                   !- ASHRAE Clear Sky Optical Depth for Beam Irradiance (taub) {dimensionless}
    1.806;                   !- ASHRAE Clear Sky Optical Depth for Diffuse Irradiance (taud) {dimensionless}

SizingPeriod:DesignDay,
    Philadelphia Ne Philadelphia Ann Htg 99.6% Condns DB,  !- Name
    1,                       !- Month
    21,                      !- Day of Month
    WinterDesignDay,         !- Day Type
    -11.7,                   !- Maximum Dry-Bulb Temperature {C}
    0,                       !- Daily Dry-Bulb Temperature Range {deltaC}
    DefaultMultipliers,      !- Dry-Bulb Temperature Range Modifier Type
    ,                        !- Dry-Bulb Temperature Range Modifier Day Schedule Name
    Wetbulb,                 !- Humidity Condition Type
    -11.7,                   !- Wetbulb or DewPoint at Maximum Dry-Bulb {C}
    ,                        !- Humidity Condition Day Schedule Name
    ,                        !- Humidity Ratio at Maximum Dry-Bulb {kgWater/kgDryAir}
    ,                        !- Enthalpy at Maximum Dry-Bulb {J/kg}
    ,                        !- Daily Wet-Bulb Temperature Range {deltaC}
    100965,                  !- Barometric Pressure {Pa}
    4.5,                     !- Wind Speed {m/s}
    300,                     !- Wind Direction {deg}
    No,                      !- Rain Indicator
    No,                      !- Snow Indicator
    No,                      !- Daylight Saving Time Indicator
    ASHRAEClearSky,          !- Solar Model Indicator
    ,                        !- Beam Solar Day Schedule Name
    ,                        !- Diffuse Solar Day Schedule Name
    ,                        !- ASHRAE Clear Sky Optical Depth for Beam Irradiance (taub) {dimensionless}
    ,                        !- ASHRAE Clear Sky Optical Depth for Diffuse Irradiance (taud) {dimensionless}
    0;                       !- Sky Clearness

SizingPeriod:DesignDay,
    Philadelphia Ne Philadelphia Ann Htg Wind 99.6% Condns WS=>MCDB,  !- Name
    1,                       !- Month
    21,                      !- Day of Month
    WinterDesignDay,         !- Day Type
    0.2,                     !- Maximum Dry-Bulb Temperature {C}
    0,                       !- Daily Dry-Bulb Temperature Range {deltaC}
    DefaultMultipliers,      !- Dry-Bulb Temperature Range Modifier Type
    ,                        !- Dry-Bulb Temperature Range Modifier Day Schedule Name
    Wetbulb,                 !- Humidity Condition Type
    0.2,                     !- Wetbulb or DewPoint at Maximum Dry-Bulb {C}
    ,                        !- Humidity Condition Day Schedule Name
    ,                        !- Humidity Ratio at Maximum Dry-Bulb {kgWater/kgDryAir}
    ,                        !- Enthalpy at Maximum Dry-Bulb {J/kg}
    ,                        !- Daily Wet-Bulb Temperature Range {deltaC}
    100965,                  !- Barometric Pressure {Pa}
    11.1,                    !- Wind Speed {m/s}
    300,                     !- Wind Direction {deg}
    No,                      !- Rain Indicator
    No,                      !- Snow Indicator
    No,                      !- Daylight Saving Time Indicator
    ASHRAEClearSky,          !- Solar Model Indicator
    ,                        !- Beam Solar Day Schedule Name
    ,                        !- Diffuse Solar Day Schedule Name
    ,                        !- ASHRAE Clear Sky Optical Depth for Beam Irradiance (taub) {dimensionless}
    ,                        !- ASHRAE Clear Sky Optical Depth for Diffuse Irradiance (taud) {dimensionless}
    0;                       !- Sky Clearness

SizingPeriod:DesignDay,
    Philadelphia Ne Philadelphia Ann Hum_n 99.6% Condns DP=>MCDB,  !- Name
    1,                       !- Month
    21,                      !- Day of Month
    WinterDesignDay,         !- Day Type
    -10.6,                   !- Maximum Dry-Bulb Temperature {C}
    0,                       !- Daily Dry-Bulb Temperature Range {deltaC}
    DefaultMultipliers,      !- Dry-Bulb Temperature Range Modifier Type
    ,                        !- Dry-Bulb Temperature Range Modifier Day Schedule Name
    Dewpoint,                !- Humidity Condition Type
    -19.9,                   !- Wetbulb or DewPoint at Maximum Dry-Bulb {C}
    ,                        !- Humidity Condition Day Schedule Name
    ,                        !- Humidity Ratio at Maximum Dry-Bulb {kgWater/kgDryAir}
    ,                        !- Enthalpy at Maximum Dry-Bulb {J/kg}
    ,                        !- Daily Wet-Bulb Temperature Range {deltaC}
    100965,                  !- Barometric Pressure {Pa}
    4.5,                     !- Wind Speed {m/s}
    300,                     !- Wind Direction {deg}
    No,                      !- Rain Indicator
    No,                      !- Snow Indicator
    No,                      !- Daylight Saving Time Indicator
    ASHRAEClearSky,          !- Solar Model Indicator
    ,                        !- Beam Solar Day Schedule Name
    ,                        !- Diffuse Solar Day Schedule Name
    ,                        !- ASHRAE Clear Sky Optical Depth for Beam Irradiance (taub) {dimensionless}
    ,                        !- ASHRAE Clear Sky Optical Depth for Diffuse Irradiance (taud) {dimensionless}
    0;                       !- Sky Clearness


!-   ===========  ALL OBJECTS IN CLASS: RUNPERIOD ===========

RunPeriod,
    Run Period 1,            !- Name
    1,                       !- Begin Month
    1,                       !- Begin Day of Month
    12,                      !- End Month
    31,                      !- End Day of Month
    Sunday,                  !- Day of Week for Start Day
    No,                      !- Use Weather File Holidays and Special Days
    No,                      !- Use Weather File Daylight Saving Period
    No,                      !- Apply Weekend Holiday Rule
    Yes,                     !- Use Weather File Rain Indicators
    Yes,                     !- Use Weather File Snow Indicators
    1;                       !- Number of Times Runperiod to be Repeated


!-   ===========  ALL OBJECTS IN CLASS: RUNPERIODCONTROL:DAYLIGHTSAVINGTIME ===========

RunPeriodControl:DaylightSavingTime,
    2nd Sunday in March,     !- Start Date
    1st Sunday in November;  !- End Date


!-   ===========  ALL OBJECTS IN CLASS: SCHEDULETYPELIMITS ===========

ScheduleTypeLimits,
    Fraction,                !- Name
    0,                       !- Lower Limit Value
    1,                       !- Upper Limit Value
    CONTINUOUS;              !- Numeric Type

ScheduleTypeLimits,
    1st_Mid Thermostat Schedule Type Limits,  !- Name
    0,                       !- Lower Limit Value
    4,                       !- Upper Limit Value
    DISCRETE;                !- Numeric Type

ScheduleTypeLimits,
    Temperature 1,           !- Name
    ,                        !- Lower Limit Value
    ,                        !- Upper Limit Value
    Continuous,              !- Numeric Type
    temperature;             !- Unit Type

ScheduleTypeLimits,
    Temperature 2,           !- Name
    ,                        !- Lower Limit Value
    ,                        !- Upper Limit Value
    Continuous,              !- Numeric Type
    temperature;             !- Unit Type

ScheduleTypeLimits,
    Fractional,              !- Name
    0,                       !- Lower Limit Value
    1,                       !- Upper Limit Value
    Continuous;              !- Numeric Type

ScheduleTypeLimits,
    On/Off,                  !- Name
    0,                       !- Lower Limit Value
    1,                       !- Upper Limit Value
    DISCRETE;                !- Numeric Type

ScheduleTypeLimits,
    1st_North Thermostat Schedule Type Limits,  !- Name
    0,                       !- Lower Limit Value
    4,                       !- Upper Limit Value
    DISCRETE;                !- Numeric Type

ScheduleTypeLimits,
    1st_South Thermostat Schedule Type Limits,  !- Name
    0,                       !- Lower Limit Value
    4,                       !- Upper Limit Value
    DISCRETE;                !- Numeric Type

ScheduleTypeLimits,
    2nd_Mid Thermostat Schedule Type Limits,  !- Name
    0,                       !- Lower Limit Value
    4,                       !- Upper Limit Value
    DISCRETE;                !- Numeric Type

ScheduleTypeLimits,
    2nd_NorthBack Thermostat Schedule Type Limits,  !- Name
    0,                       !- Lower Limit Value
    4,                       !- Upper Limit Value
    DISCRETE;                !- Numeric Type

ScheduleTypeLimits,
    2nd_NorthFront Thermostat Schedule Type Limits,  !- Name
    0,                       !- Lower Limit Value
    4,                       !- Upper Limit Value
    DISCRETE;                !- Numeric Type

ScheduleTypeLimits,
    2nd_SouthBack Thermostat Schedule Type Limits,  !- Name
    0,                       !- Lower Limit Value
    4,                       !- Upper Limit Value
    DISCRETE;                !- Numeric Type

ScheduleTypeLimits,
    2nd_SouthFront Thermostat Schedule Type Limits,  !- Name
    0,                       !- Lower Limit Value
    4,                       !- Upper Limit Value
    DISCRETE;                !- Numeric Type

ScheduleTypeLimits,
    3rd_Mid Thermostat Schedule Type Limits,  !- Name
    0,                       !- Lower Limit Value
    4,                       !- Upper Limit Value
    DISCRETE;                !- Numeric Type

ScheduleTypeLimits,
    3rd_NorthBack Thermostat Schedule Type Limits,  !- Name
    0,                       !- Lower Limit Value
    4,                       !- Upper Limit Value
    DISCRETE;                !- Numeric Type

ScheduleTypeLimits,
    3rd_NorthEnd Thermostat Schedule Type Limits,  !- Name
    0,                       !- Lower Limit Value
    4,                       !- Upper Limit Value
    DISCRETE;                !- Numeric Type

ScheduleTypeLimits,
    3rd_NorthFront Thermostat Schedule Type Limits,  !- Name
    0,                       !- Lower Limit Value
    4,                       !- Upper Limit Value
    DISCRETE;                !- Numeric Type

ScheduleTypeLimits,
    3rd_SouthBack Thermostat Schedule Type Limits,  !- Name
    0,                       !- Lower Limit Value
    4,                       !- Upper Limit Value
    DISCRETE;                !- Numeric Type

ScheduleTypeLimits,
    3rd_SouthEnd Thermostat Schedule Type Limits,  !- Name
    0,                       !- Lower Limit Value
    4,                       !- Upper Limit Value
    DISCRETE;                !- Numeric Type

ScheduleTypeLimits,
    3rd_SouthFront Thermostat Schedule Type Limits,  !- Name
    0,                       !- Lower Limit Value
    4,                       !- Upper Limit Value
    DISCRETE;                !- Numeric Type

ScheduleTypeLimits,
    Bsmt_North Thermostat Schedule Type Limits,  !- Name
    0,                       !- Lower Limit Value
    4,                       !- Upper Limit Value
    DISCRETE;                !- Numeric Type

ScheduleTypeLimits,
    Bsmt_South Thermostat Schedule Type Limits,  !- Name
    0,                       !- Lower Limit Value
    4,                       !- Upper Limit Value
    DISCRETE;                !- Numeric Type

ScheduleTypeLimits,
    Lobby_Mid Thermostat Schedule Type Limits,  !- Name
    0,                       !- Lower Limit Value
    4,                       !- Upper Limit Value
    DISCRETE;                !- Numeric Type

ScheduleTypeLimits,
    NorthEnd Thermostat Schedule Type Limits,  !- Name
    0,                       !- Lower Limit Value
    4,                       !- Upper Limit Value
    DISCRETE;                !- Numeric Type

ScheduleTypeLimits,
    SouthEnd Thermostat Schedule Type Limits,  !- Name
    0,                       !- Lower Limit Value
    4,                       !- Upper Limit Value
    DISCRETE;                !- Numeric Type

ScheduleTypeLimits,
    Stair_North Thermostat Schedule Type Limits,  !- Name
    0,                       !- Lower Limit Value
    4,                       !- Upper Limit Value
    DISCRETE;                !- Numeric Type

ScheduleTypeLimits,
    Stair_South Thermostat Schedule Type Limits,  !- Name
    0,                       !- Lower Limit Value
    4,                       !- Upper Limit Value
    DISCRETE;                !- Numeric Type

ScheduleTypeLimits,
    ActivityLevel,           !- Name
    0,                       !- Lower Limit Value
    ,                        !- Upper Limit Value
    Continuous,              !- Numeric Type
    activitylevel;           !- Unit Type

ScheduleTypeLimits,
    Always On Discrete Limits,  !- Name
    0,                       !- Lower Limit Value
    1,                       !- Upper Limit Value
    Discrete,                !- Numeric Type
    availability;            !- Unit Type

ScheduleTypeLimits,
    Any Number;              !- Name

ScheduleTypeLimits,
    Control Type,            !- Name
    0,                       !- Lower Limit Value
    4,                       !- Upper Limit Value
    DISCRETE;                !- Numeric Type

ScheduleTypeLimits,
    OnOff,                   !- Name
    0,                       !- Lower Limit Value
    1,                       !- Upper Limit Value
    Discrete,                !- Numeric Type
    availability;            !- Unit Type

ScheduleTypeLimits,
    Schedule Type Limits 1,  !- Name
    0,                       !- Lower Limit Value
    1,                       !- Upper Limit Value
    Discrete,                !- Numeric Type
    availability;            !- Unit Type

ScheduleTypeLimits,
    Temperature,             !- Name
    ,                        !- Lower Limit Value
    ,                        !- Upper Limit Value
    Continuous,              !- Numeric Type
    temperature;             !- Unit Type

ScheduleTypeLimits,
    Temperature 10,          !- Name
    ,                        !- Lower Limit Value
    ,                        !- Upper Limit Value
    Continuous,              !- Numeric Type
    temperature;             !- Unit Type

ScheduleTypeLimits,
    Temperature 11,          !- Name
    ,                        !- Lower Limit Value
    ,                        !- Upper Limit Value
    Continuous,              !- Numeric Type
    temperature;             !- Unit Type

ScheduleTypeLimits,
    Temperature 12,          !- Name
    ,                        !- Lower Limit Value
    ,                        !- Upper Limit Value
    Continuous,              !- Numeric Type
    temperature;             !- Unit Type

ScheduleTypeLimits,
    Temperature 13,          !- Name
    ,                        !- Lower Limit Value
    ,                        !- Upper Limit Value
    Continuous,              !- Numeric Type
    temperature;             !- Unit Type

ScheduleTypeLimits,
    Temperature 14,          !- Name
    ,                        !- Lower Limit Value
    ,                        !- Upper Limit Value
    Continuous,              !- Numeric Type
    temperature;             !- Unit Type

ScheduleTypeLimits,
    Temperature 15,          !- Name
    ,                        !- Lower Limit Value
    ,                        !- Upper Limit Value
    Continuous,              !- Numeric Type
    temperature;             !- Unit Type

ScheduleTypeLimits,
    Temperature 16,          !- Name
    ,                        !- Lower Limit Value
    ,                        !- Upper Limit Value
    Continuous,              !- Numeric Type
    temperature;             !- Unit Type

ScheduleTypeLimits,
    Temperature 3,           !- Name
    ,                        !- Lower Limit Value
    ,                        !- Upper Limit Value
    Continuous,              !- Numeric Type
    temperature;             !- Unit Type

ScheduleTypeLimits,
    Temperature 4,           !- Name
    ,                        !- Lower Limit Value
    ,                        !- Upper Limit Value
    Continuous,              !- Numeric Type
    temperature;             !- Unit Type

ScheduleTypeLimits,
    Temperature 5,           !- Name
    ,                        !- Lower Limit Value
    ,                        !- Upper Limit Value
    Continuous,              !- Numeric Type
    temperature;             !- Unit Type

ScheduleTypeLimits,
    Temperature 6,           !- Name
    ,                        !- Lower Limit Value
    ,                        !- Upper Limit Value
    Continuous,              !- Numeric Type
    temperature;             !- Unit Type

ScheduleTypeLimits,
    Temperature 7,           !- Name
    ,                        !- Lower Limit Value
    ,                        !- Upper Limit Value
    Continuous,              !- Numeric Type
    temperature;             !- Unit Type

ScheduleTypeLimits,
    Temperature 8,           !- Name
    ,                        !- Lower Limit Value
    ,                        !- Upper Limit Value
    Continuous,              !- Numeric Type
    temperature;             !- Unit Type

ScheduleTypeLimits,
    Temperature 9,           !- Name
    ,                        !- Lower Limit Value
    ,                        !- Upper Limit Value
    Continuous,              !- Numeric Type
    temperature;             !- Unit Type


!-   ===========  ALL OBJECTS IN CLASS: SCHEDULE:DAY:INTERVAL ===========

Schedule:Day:Interval,
    Medium Office Bldg Light Rule 1 Day Schedule,  !- Name
    Fraction,                !- Schedule Type Limits Name
    No,                      !- Interpolate to Timestep
    24:00,                   !- Time 1 {hh:mm}
    0.150000005960464;       !- Value Until Time 1

Schedule:Day:Interval,
    Medium Office Bldg Light Default Schedule,  !- Name
    Fraction,                !- Schedule Type Limits Name
    No,                      !- Interpolate to Timestep
    07:00,                   !- Time 1 {hh:mm}
    0.200000002980232,       !- Value Until Time 1
    08:00,                   !- Time 2 {hh:mm}
    0.302531838417053,       !- Value Until Time 2
    09:00,                   !- Time 3 {hh:mm}
    0.697563588619232,       !- Value Until Time 3
    17:00,                   !- Time 4 {hh:mm}
    0.900361657142639,       !- Value Until Time 4
    18:00,                   !- Time 5 {hh:mm}
    0.701085031032562,       !- Value Until Time 5
    20:00,                   !- Time 6 {hh:mm}
    0.50180846452713,        !- Value Until Time 6
    22:00,                   !- Time 7 {hh:mm}
    0.302531838417053,       !- Value Until Time 7
    24:00,                   !- Time 8 {hh:mm}
    0.200000002980232;       !- Value Until Time 8

Schedule:Day:Interval,
    Medium Office Bldg Light Summer Design Day,  !- Name
    Fraction,                !- Schedule Type Limits Name
    No,                      !- Interpolate to Timestep
    24:00,                   !- Time 1 {hh:mm}
    1;                       !- Value Until Time 1

Schedule:Day:Interval,
    Medium Office Bldg Light Winter Design Day,  !- Name
    Fraction,                !- Schedule Type Limits Name
    No,                      !- Interpolate to Timestep
    24:00,                   !- Time 1 {hh:mm}
    0;                       !- Value Until Time 1

Schedule:Day:Interval,
    Medium Office HtgSetp Default Schedule,  !- Name
    Temperature 1,           !- Schedule Type Limits Name
    No,                      !- Interpolate to Timestep
    24:00,                   !- Time 1 {hh:mm}
    21.1111111111111;        !- Value Until Time 1

Schedule:Day:Interval,
    Medium Office HtgSetp Summer Design Day,  !- Name
    Temperature 1,           !- Schedule Type Limits Name
    No,                      !- Interpolate to Timestep
    24:00,                   !- Time 1 {hh:mm}
    21.1111111111111;        !- Value Until Time 1

Schedule:Day:Interval,
    Medium Office HtgSetp Winter Design Day,  !- Name
    Temperature 1,           !- Schedule Type Limits Name
    No,                      !- Interpolate to Timestep
    24:00,                   !- Time 1 {hh:mm}
    21.1111111111111;        !- Value Until Time 1

Schedule:Day:Interval,
    Medium Office ClgSetp Default Schedule,  !- Name
    Temperature 2,           !- Schedule Type Limits Name
    No,                      !- Interpolate to Timestep