
Version,
  8.1;                                    !- Version Identifier

Building,
  Building 1,                             !- Name
  ,                                       !- North Axis {deg}
  ,                                       !- Terrain
  ,                                       !- Loads Convergence Tolerance Value
  ,                                       !- Temperature Convergence Tolerance Value {deltaC}
  ,                                       !- Solar Distribution
  ,                                       !- Maximum Number of Warmup Days
  ;                                       !- Minimum Number of Warmup Days

SimulationControl,
  No,                                     !- Do Zone Sizing Calculation
  No,                                     !- Do System Sizing Calculation
  No,                                     !- Do Plant Sizing Calculation
  Yes,                                    !- Run Simulation for Sizing Periods
  Yes;                                    !- Run Simulation for Weather File Run Periods

ProgramControl,
  1;                                      !- Number of Threads Allowed

Sizing:Parameters,
  1.25,                                   !- Heating Sizing Factor
  1.15;                                   !- Cooling Sizing Factor

RunPeriod,
  Run Period 1,                           !- Name
  1,                                      !- Begin Month
  1,                                      !- Begin Day of Month
  12,                                     !- End Month
  31,                                     !- End Day of Month
  Thursday,                               !- Day of Week for Start Day
  No,                                     !- Use Weather File Holidays and Special Days
  No,                                     !- Use Weather File Daylight Saving Period
  No,                                     !- Apply Weekend Holiday Rule
  Yes,                                    !- Use Weather File Rain Indicators
  Yes,                                    !- Use Weather File Snow Indicators
  1;                                      !- Number of Times Runperiod to be Repeated

GlobalGeometryRules,
  UpperLeftCorner,                        !- Starting Vertex Position
  Counterclockwise,                       !- Vertex Entry Direction
  Relative,                               !- Coordinate System
  Relative,                               !- Daylighting Reference Point Coordinate System
  Relative;                               !- Rectangular Surface Coordinate System

OutputControl:Table:Style,
  HTML;                                   !- Column Separator

Output:Table:SummaryReports,
  AllSummary;                             !- Report Name 1

Output:VariableDictionary,
  IDF,                                    !- Key Field
  Unsorted;                               !- Sort Option

Output:SQLite,
  SimpleAndTabular;                       !- Option Type

LifeCycleCost:NonrecurringCost,
  Default Cost,                           !- Name
  Construction,                           !- Category
  0,                                      !- Cost
  ServicePeriod;                          !- Start of Costs

UtilityCost:Tariff,
  PECO_GS_ELECTRIC_RATES,                 !- Name
  Electricity:Facility,                   !- Output Meter Name
  kWh,                                    !- Conversion Factor Choice
  ,                                       !- Energy Conversion Factor
  ,                                       !- Demand Conversion Factor
  ,                                       !- Time of Use Period Schedule Name
  ,                                       !- Season Schedule Name
  ,                                       !- Month Schedule Name
  ,                                       !- Demand Window Length
  16.42,                                  !- Monthly Charge or Variable Name
  ,                                       !- Minimum Monthly Charge or Variable Name
  ,                                       !- Real Time Pricing Charge Schedule Name
  ,                                       !- Customer Baseline Load Schedule Name
  Comm Elec;                              !- Group Name

UtilityCost:Charge:Simple,
  GENERATION_CHARGE,                      !- Name
  PECO_GS_ELECTRIC_RATES,                 !- Tariff Name
  totalEnergy,                            !- Source Variable
  Annual,                                 !- Season
  EnergyCharges,                          !- Category Variable Name
  0.076;                                  !- Cost per Unit Value or Variable Name

UtilityCost:Charge:Simple,
  ALTENERGY_CHARGE,                       !- Name
  PECO_GS_ELECTRIC_RATES,                 !- Tariff Name
  totalEnergy,                            !- Source Variable
  Annual,                                 !- Season
  ServiceCharges,                         !- Category Variable Name
  0.0021;                                 !- Cost per Unit Value or Variable Name

UtilityCost:Charge:Simple,
  TRANSMISSION_CHARGE,                    !- Name
  PECO_GS_ELECTRIC_RATES,                 !- Tariff Name
  totalDemand,                            !- Source Variable
  Annual,                                 !- Season
  DemandCharges,                          !- Category Variable Name
  2.21;                                   !- Cost per Unit Value or Variable Name

UtilityCost:Charge:Simple,
  DISTRIBUTION__ENERGY_CHARGE,            !- Name
  PECO_GS_ELECTRIC_RATES,                 !- Tariff Name
  totalEnergy,                            !- Source Variable
  Annual,                                 !- Season
  EnergyCharges,                          !- Category Variable Name
  0.0041;                                 !- Cost per Unit Value or Variable Name

UtilityCost:Charge:Simple,
  DISTRIBUTION_DEMAND_CHARGE,             !- Name
  PECO_GS_ELECTRIC_RATES,                 !- Tariff Name
  totalDemand,                            !- Source Variable
  Annual,                                 !- Season
  DemandCharges,                          !- Category Variable Name
  4.96;                                   !- Cost per Unit Value or Variable Name

UtilityCost:Charge:Simple,
  ENERGYEFF_CHARGE,                       !- Name
  PECO_GS_ELECTRIC_RATES,                 !- Tariff Name
  totalEnergy,                            !- Source Variable
  Annual,                                 !- Season
  ServiceCharges,                         !- Category Variable Name
  0.00270;                                !- Cost per Unit Value or Variable Name

UtilityCost:Charge:Simple,
  STATE_TAX_ADJUSTMENT,                   !- Name
  PECO_GS_ELECTRIC_RATES,                 !- Tariff Name
  Subtotal,                               !- Source Variable
  Annual,                                 !- Season
  Taxes,                                  !- Category Variable Name
  -0.0021;                                !- Cost per Unit Value or Variable Name

UtilityCost:Tariff,
  PGW_GS_GAS_RATES,                       !- Name
  Gas:Facility,                           !- Output Meter Name
  CCF,                                    !- Conversion Factor Choice
  ,                                       !- Energy Conversion Factor
  ,                                       !- Demand Conversion Factor
  ,                                       !- Time of Use Period Schedule Name
  ,                                       !- Season Schedule Name
  ,                                       !- Month Schedule Name
  ,                                       !- Demand Window Length
  18.00,                                  !- Monthly Charge or Variable Name
  ,                                       !- Minimum Monthly Charge or Variable Name
  ,                                       !- Real Time Pricing Charge Schedule Name
  ,                                       !- Customer Baseline Load Schedule Name
  Comm Gas;                               !- Group Name

UtilityCost:Charge:Simple,
  GAS_GCR_CHARGE,                         !- Name
  PGW_GS_GAS_RATES,                       !- Tariff Name
  totalEnergy,                            !- Source Variable
  Annual,                                 !- Season
  EnergyCharges,                          !- Category Variable Name
  0.72497;                                !- Cost per Unit Value or Variable Name

UtilityCost:Charge:Simple,
  GAS_DISTRIBUTION_CHARGE,                !- Name
  PGW_GS_GAS_RATES,                       !- Tariff Name
  totalEnergy,                            !- Source Variable
  Annual,                                 !- Season
  EnergyCharges,                          !- Category Variable Name
  0.50287;                                !- Cost per Unit Value or Variable Name

UtilityCost:Charge:Simple,
  GAS_SERVICE_CHARGE,                     !- Name
  PGW_GS_GAS_RATES,                       !- Tariff Name
  totalEnergy,                            !- Source Variable
  Annual,                                 !- Season
  ServiceCharges,                         !- Category Variable Name
  0.20117;                                !- Cost per Unit Value or Variable Name

UtilityCost:Charge:Simple,
  GAS_ENERGYEFF_CHARGE,                   !- Name
  PGW_GS_GAS_RATES,                       !- Tariff Name
  totalEnergy,                            !- Source Variable
  Annual,                                 !- Season
  ServiceCharges,                         !- Category Variable Name
  0.0023;                                 !- Cost per Unit Value or Variable Name

LifeCycleCost:Parameters,
  FEMP LifeCycle Cost Parameters,         !- Name
  EndOfYear,                              !- Discounting Convention
  ConstantDollar,                         !- Inflation Approach
  0.03,                                   !- Real Discount Rate
  ,                                       !- Nominal Discount Rate
  ,                                       !- Inflation
  ,                                       !- Base Date Month
  2013,                                   !- Base Date Year
  ,                                       !- Service Date Month
  2013,                                   !- Service Date Year
  20,                                     !- Length of Study Period in Years
  ,                                       !- Tax rate
  None;                                   !- Depreciation Method

LifeCycleCost:UsePriceEscalation,
  NIST_COMMERCIAL_ELECTRICITY,            !- Name
  Electricity,                            !- Resource
  2013,                                   !- Escalation Start Year
  April,                                  !- Escalation Start Month
  0.98,                                   !- Year Escalation 1
  0.96,                                   !- Year Escalation 2
  0.96,                                   !- Year Escalation 3
  0.97,                                   !- Year Escalation 4
  0.98,                                   !- Year Escalation 5
  0.99,                                   !- Year Escalation 6
  0.98,                                   !- Year Escalation 7
  0.98,                                   !- Year Escalation 8
  0.98,                                   !- Year Escalation 9
  0.98,                                   !- Year Escalation 10
  0.99,                                   !- Year Escalation 11
  0.98,                                   !- Year Escalation 12
  0.95,                                   !- Year Escalation 13
  0.95,                                   !- Year Escalation 14
  0.97,                                   !- Year Escalation 15
  0.97,                                   !- Year Escalation 16
  0.98,                                   !- Year Escalation 17
  0.98,                                   !- Year Escalation 18
  0.99,                                   !- Year Escalation 19
  1.00,                                   !- Year Escalation 20
  1.00,                                   !- Year Escalation 21
  1.01,                                   !- Year Escalation 22
  1.02,                                   !- Year Escalation 23
  1.03,                                   !- Year Escalation 24
  1.05,                                   !- Year Escalation 25
  1.08,                                   !- Year Escalation 26
  1.09,                                   !- Year Escalation 27
  1.10,                                   !- Year Escalation 28
  1.11,                                   !- Year Escalation 29
  1.11;                                   !- Year Escalation 30

LifeCycleCost:UsePriceEscalation,
  NIST_COMMERCIAL_GAS,                    !- Name
  Gas,                                    !- Resource
  2013,                                   !- Escalation Start Year
  April,                                  !- Escalation Start Month
  0.99,                                   !- Year Escalation 1
  0.97,                                   !- Year Escalation 2
  1.00,                                   !- Year Escalation 3
  1.02,                                   !- Year Escalation 4
  1.05,                                   !- Year Escalation 5
  1.07,                                   !- Year Escalation 6
  1.08,                                   !- Year Escalation 7
  1.09,                                   !- Year Escalation 8
  1.11,                                   !- Year Escalation 9
  1.12,                                   !- Year Escalation 10
  1.13,                                   !- Year Escalation 11
  1.14,                                   !- Year Escalation 12
  1.16,                                   !- Year Escalation 13
  1.17,                                   !- Year Escalation 14
  1.18,                                   !- Year Escalation 15
  1.19,                                   !- Year Escalation 16
  1.20,                                   !- Year Escalation 17
  1.21,                                   !- Year Escalation 18
  1.22,                                   !- Year Escalation 19
  1.24,                                   !- Year Escalation 20
  1.26,                                   !- Year Escalation 21
  1.28,                                   !- Year Escalation 22
  1.31,                                   !- Year Escalation 23
  1.34,                                   !- Year Escalation 24
  1.38,                                   !- Year Escalation 25
  1.40,                                   !- Year Escalation 26
  1.42,                                   !- Year Escalation 27
  1.45,                                   !- Year Escalation 28
  1.47,                                   !- Year Escalation 29
  1.50;                                   !- Year Escalation 30

